OPT_V9/2ts_w_storgae_myc/powerflow_results_t2.txt
Pandapower Network Debug Info
==================================================

BUS:
       vm_pu  va_degree      p_mw    q_mvar
0   1.002851   0.189758 -0.007511 -0.001591
1   1.004202   0.216898 -0.003702 -0.003058
2   1.000784   0.267315  0.001877  0.002441
3   0.999609   0.264382  0.002069  0.003569
4   1.005146   0.223716 -0.003072 -0.000174
5   0.999405   0.127847 -0.002143  0.001166
6   0.997756   0.124273  0.001210  0.000872
7   0.997481   0.028530  0.001942  0.002125
8   1.001266   0.069862 -0.005026  0.000470
9   0.999958   0.003202  0.000184  0.008514
10  0.999950   0.003579  0.002469  0.009172
11  0.999945   0.003908  0.001016  0.012554
12  0.999916   0.004882  0.002639  0.005374
13  0.999904   0.005346  0.004099  0.010116
14  0.999898   0.005626  0.003949  0.013076
15  0.999979   0.001989  0.000000  0.000000
16  0.999979   0.001990  0.000000  0.000000
17  0.999919   0.004816  0.000000  0.000000
18  0.999919   0.004819  0.000000  0.000000
19  1.000000   0.000000  0.003527 -0.036639
20  1.000000   0.000005  0.000000  0.000000
21  1.000000   0.000000 -0.003654 -0.038054
22  1.000000   0.000005  0.000000  0.000000
--------------------------------------------------

LINE:
    p_from_mw  q_from_mvar   p_to_mw  q_to_mvar         pl_mw       ql_mvar  i_from_ka   i_to_ka      i_ka  vm_from_pu  va_from_degree  vm_to_pu  va_to_degree  loading_percent
0   -0.003537     0.032639  0.003538  -0.032638  1.054262e-06  8.220254e-07   0.001264  0.001264  0.001264    1.000000        0.000005  0.999979      0.001989         0.549409
1    0.003644     0.034054 -0.003641  -0.034052  3.155138e-06  2.460113e-06   0.001318  0.001318  0.001318    1.000000        0.000005  0.999919      0.004816         0.573144
2    0.003671     0.030241 -0.003670  -0.030240  7.176281e-07  5.595464e-07   0.001173  0.001173  0.001173    0.999979        0.001989  0.999958      0.003202         0.509801
3    0.002639     0.005374 -0.002639  -0.005374  1.239615e-08  9.665481e-09   0.000230  0.000230  0.000230    0.999919        0.004816  0.999916      0.004882         0.100193
4    0.008048     0.023192 -0.008048  -0.023192  3.295830e-07  2.569813e-07   0.000945  0.000945  0.000945    0.999919        0.004816  0.999904      0.005346         0.410857
5   -0.007219     0.001398  0.007245  -0.001378  2.529087e-05  1.971971e-05   0.010614  0.010614  0.010614    0.999979        0.001990  1.002851      0.189758         4.614665
6   -0.000927     0.002043  0.000931  -0.002040  3.905151e-06  3.044911e-06   0.003238  0.003238  0.003238    0.999919        0.004819  0.999405      0.127847         1.407961
7    0.001948     0.002130 -0.001942  -0.002125  5.628128e-06  4.388344e-06   0.004166  0.004166  0.004166    0.999919        0.004819  0.997481      0.028530         1.811283
8   -0.008076     0.000314  0.008087  -0.000305  1.123199e-05  8.757767e-06   0.011666  0.011666  0.011666    0.999919        0.004819  1.001266      0.069862         5.072179
9   -0.003486    -0.021726  0.003486   0.021726  1.674536e-07  1.305663e-07   0.000847  0.000847  0.000847    0.999950        0.003579  0.999958      0.003202         0.368248
10  -0.001016    -0.012554  0.001016   0.012554  7.758702e-08  6.049588e-08   0.000485  0.000485  0.000485    0.999945        0.003908  0.999950      0.003579         0.210781
11  -0.003949    -0.013076  0.003949   0.013076  9.126458e-08  7.116050e-08   0.000526  0.000526  0.000526    0.999898        0.005626  0.999904      0.005346         0.228606
12   0.001817     0.000610 -0.001815  -0.000609  2.155243e-06  1.680478e-06   0.002755  0.002755  0.002755    1.004202        0.216898  1.002851      0.189758         1.197778
13  -0.002069    -0.003569  0.002081   0.003578  1.137292e-05  8.867654e-06   0.005957  0.005957  0.005957    0.999609        0.264382  1.002851      0.189758         2.590013
14  -0.001877    -0.002441  0.001885   0.002448  8.563304e-06  6.676949e-06   0.004441  0.004441  0.004441    1.000784        0.267315  1.004202      0.216898         1.930836
15  -0.003061    -0.000165  0.003072   0.000174  1.140262e-05  8.890808e-06   0.004419  0.004419  0.004419    1.001266        0.069862  1.005146      0.223716         1.921111
16  -0.001210    -0.000872  0.001212   0.000873  1.944792e-06  1.516387e-06   0.002157  0.002157  0.002157    0.997756        0.124273  0.999405      0.127847         0.937936
--------------------------------------------------

TRAFO:
    p_hv_mw  q_hv_mvar   p_lv_mw  q_lv_mvar    pl_mw  ql_mvar   i_hv_ka   i_lv_ka  vm_hv_pu  va_hv_degree  vm_lv_pu  va_lv_degree  loading_percent
0 -0.007209   0.002397  0.007219  -0.001398  0.00001    0.001  0.000292  0.010614  0.999979      0.001989  0.999979      0.001990         0.075976
1 -0.007045   0.005486  0.007055  -0.004486  0.00001    0.001  0.000344  0.012069  0.999919      0.004816  0.999919      0.004819         0.089299
2 -0.003527   0.036639  0.003537  -0.032639  0.00001    0.004  0.000304  0.001264  1.000000      0.000000  1.000000      0.000005         0.092021
3  0.003654   0.038054 -0.003644  -0.034054  0.00001    0.004  0.000315  0.001318  1.000000      0.000000  1.000000      0.000005         0.095573
--------------------------------------------------
